256
-2404.954710	-2404.954710
OW	5.816200 -7.799700 3.714500	  	 
OW	-3.586500 5.250700 -0.251160	  	
OW	-6.245600 5.722800 0.180620	  	
OW	2.301700 4.299100 0.681480	  	
OW	8.740800 -6.119500 1.165600	  	
OW	-1.651900 -5.870900 -5.603200	  	
OW	-3.873000 7.777200 -4.478100	  	
OW	2.967300 -5.802000 4.587400	  	
OW	5.321600 7.445700 0.584140	  	
OW	 7.764500 -9.593800 -9.518100	  	
OW	 0.551330 -3.934700 -4.680800	  	
OW	 6.543000 2.847800 3.072900	  	
OW	 -0.506130 -9.058600 6.892400	  	
OW	 8.437900 1.382900 -4.391900	  	
OW	 -3.821600 -8.945100 -9.283400	  	
OW	 -8.517200 1.889400 -4.476000	  	
OW	 -2.841500 2.455700 -0.487140	  	
OW	 4.185500 5.022400 -5.696300	  	
OW	 3.218700 -8.193800 -5.098600	  	
OW	 -1.719000 -5.784700 -1.203800	  	
OW	 1.908200 -3.444200 1.279100	  	
OW	 -5.688900 3.700000 4.506000	  	
OW	 1.389100 -8.649800 4.835200	  	
OW	 4.302800 5.315400 3.945100	  	
OW	 2.999800 1.589800 0.310250	  	
OW	 5.458500 3.998900 0.870440	  	
OW	 9.289000 -2.863500 -8.844700	  	
OW	 3.024100 -5.515200 -5.554000	  	
OW	 0.658700 -1.537400 -1.280000	  	
OW	 -6.737400 -1.592700 0.085934	  	
OW	 6.407200 -3.916100 1.396500	  	
OW	 4.179000 -6.348400 1.887100	  	
OW	 -7.826600 -8.898100 9.323900	  	
OW	 -3.847400 -8.137900 3.136000	  	
OW	 -2.506200 3.971500 8.575100	  	
OW	 -9.265200 -1.044400 -6.750200	  	
OW	 -8.285300 -2.587300 -4.370100	  	
OW	 -2.831100 5.293600 -3.162800	  	
OW	 -2.429100 -3.949400 5.239100	  	
OW	 6.310800 -1.571400 7.203400	  	
OW	 -8.672600 -7.874000 4.670100	  	
OW	 -2.333200 -1.277100 2.560800	  	
OW	 -3.976400 3.038700 -3.937600	  	
OW	 2.773000 6.481600 -9.447600	  	
OW	 4.044000 2.024800 4.180400	  	
OW	 4.974200 -6.501800 -8.854400	  	
OW	 5.177100 -6.256500 -3.191900	  	
OW	 4.181300 -5.271800 -0.730040	  	
OW	 9.466800 -9.250300 -3.145400	  	
OW	 9.702200 -6.894700 -5.195500	  	
OW	 5.611600 -9.569900 1.088700	  	
OW	 9.423400 8.560400 0.459770	  	
OW	 6.855700 -3.001000 9.552100	  	
OW	 8.769000 1.273800 6.600700	  	
OW	 8.405400 -9.347900 7.538700	  	
OW	 -5.695300 -4.619300 1.524600	  	
OW	 4.177500 -2.374400 -0.500610	  	
OW	 -3.597300 9.224300 -2.329400	  	
OW	 3.504800 -1.818200 -5.763200	  	
OW	 -1.387700 -7.678400 4.369200	  	
OW	 -5.510400 6.243100 8.275100	  	
OW	 -1.631400 8.108000 6.623700	  	
OW	 1.401300 -5.735300 -8.491200	  	
OW	 -0.916900 9.028300 -9.194500	  	
OW	 4.794600 3.527800 9.131100	  	
OW	 -2.428600 4.005800 5.230400	  	
OW	 -6.164900 1.713000 -1.551000	  	
OW	 -7.427300 -9.314200 6.664300	  	
OW	 7.504800 0.690570 -0.831820	  	
OW	 -9.783600 -0.797720 -2.862000	  	
OW	 0.690790 -5.732100 -2.272100	  	
OW	 -6.988100 -4.266800 5.225300	  	
OW	 8.715700 -6.530300 7.361000	  	
OW	 9.318600 3.761800 9.477400	  	
OW	 8.296500 -6.912900 3.847700	  	
OW	 8.485000 -1.423800 5.393200	  	
OW	 3.881400 -2.681800 7.288100	  	
OW	 -3.601100 -0.660540 8.855900	  	
OW	 7.988600 8.998100 3.266900	  	
OW	 -6.458900 -1.784300 -7.298200	  	
OW	 0.305010 4.169400 6.244300	  	
OW	 -9.215100 5.665300 -8.363200	  	
OW	 -7.152800 -9.736200 -0.736870	  	
OW	 -8.517900 -6.797200 -2.374200	  	
OW	 7.404500 -0.204010 2.814400	  	
OW	 8.503800 -4.401200 4.962200	  	
OW	 -2.864100 -3.543600 -4.310100	  	
OW	 -6.730100 -6.410800 3.240500	  	
OW	 3.385200 -0.088666 -9.226500	  	
OW	 -7.626800 0.167250 -9.484400	  	
OW	 3.011600 -3.454700 -3.669300	  	
OW	 -3.764200 6.566600 5.562200	  	
OW	 1.636700 -8.940400 0.086910	  	
OW	 4.631800 -0.520880 4.517100	  	
OW	 -6.084700 2.894500 1.069900	  	
OW	 -5.900400 3.097200 -6.288100	  	
OW	 9.588000 -7.677900 -7.986800	  	
OW	 6.944300 -3.317400 -3.530600	  	
OW	 -4.761700 -8.535800 -0.719420	  	
OW	 -4.410600 -5.323300 -8.126200 	
OW	 1.476300 -7.239000 2.242800	  	
OW	 -0.833160 -8.937100 -3.792900 	
OW	 7.475200 3.528700 5.433000	  	
OW	 -8.277000 4.843700 -5.863100  	
OW	 -0.294000 6.736100 2.662500	  	
OW	 5.442500 -6.432200 -6.101100  	
OW	 -6.021300 0.377510 -4.521500  	
OW	 2.525400 8.683200 -7.500900	  	
OW	 -0.141050 7.012100 -7.614400  	
OW	 3.397400 -8.749200 -8.494300  	
OW	 9.614000 6.024500 3.846900	  	
OW	 -0.636230 8.559100 -5.463300  	
OW	 5.791000 1.027400 -3.120100	  	
OW	 -4.472700 8.580000 3.427900	  	
OW	 6.256100 -9.056500 -6.795700  	
OW	 -0.950960 8.909900 -1.083100  	
OW	 0.099823 6.594600 8.236000	  	
OW	 0.925730 -8.079800 -6.871600  	
OW	 4.422200 8.579600 -5.540700	  	
OW	 -6.148400 -1.117100 5.610400  	
OW	 4.612700 3.747200 6.282600	  	
OW	 0.046785 6.697400 -0.043776	  	
OW	 8.069300 -1.806400 0.223930	  	
OW	 -8.278500 -2.503600 6.889700  	
OW	 1.495300 -0.232020 1.792100	  	
OW	 -0.549910 -0.063871 4.397100  	
OW	 7.232600 6.489000 5.971500	  	
OW	 7.154200 5.913900 -2.954900	  	
OW	 -8.753000 1.571900 -7.359100  	
OW	 5.514300 5.673900 -8.049800	  	
OW	 1.408200 4.876900 3.698500	  	
OW	 7.509000 5.682300 8.443400	  	
OW	 -6.494900 6.572200 -4.425000  	
OW	 -9.095900 -3.253400 3.475700  	
OW	 4.113700 -8.702900 5.999400	  	
OW	 2.607200 7.952700 3.616100	  	
OW	 5.917900 1.043200 7.210500	  	
OW	 0.274770 -5.112400 4.548600	  	
OW	 -5.798100 -1.937300 2.832300  	
OW	 -7.786100 6.914300 6.720600	  	
OW	 -2.828900 7.030600 1.890700	  	
OW	 2.784300 -3.079900 4.079200	  	
OW	 -0.596410 -1.299900 -4.345500 	
OW	 1.806700 -1.324800 6.159000	  	
OW	 -8.375200 6.328100 -1.500700  	
OW	 5.462100 3.948000 -3.576200	  	
OW	 0.420710 3.322100 -5.764400	  	
OW	 -1.277500 -3.969600 2.730100  	
OW	 6.291700 -8.806100 -3.412400  	
OW	 9.655500 8.308000 6.234900	  	
OW	 -5.427800 -7.546400 8.050800  	
OW	 -0.307740 9.271700 3.484600	  	
OW	 0.479070 2.548700 -2.230200	  	
OW	 -4.690600 9.586500 6.043200	  	
OW	 -3.962000 -6.425300 0.876050  	
OW	 -3.183900 -1.190600 -0.680150 	
OW	 9.501900 -4.444500 -3.774200  	
OW	 7.930400 -8.557000 -0.106180  	
OW	 -3.381000 -6.328700 6.669900  	
OW	 1.698700 -2.415500 -8.941700  	
OW	 1.190600 -0.483030 -6.549000  	
OW	 1.017700 2.217100 3.385100	  	
OW	 -9.696200 -0.889600 8.642100  	
OW	 -6.036700 0.432440 7.673200	  	
OW	 9.015500 4.716800 -4.229500	  	
OW	 3.431400 2.578400 -6.404300	  	
OW	 -8.443400 3.574000 7.259100	  	
OW	 -7.235700 7.933800 -9.544100  	
OW	 -3.357200 -1.608000 6.288800  	
OW	 -9.068100 -2.810800 -0.963920 	
OW	 6.387600 -5.618000 8.634400	  	
OW	 -4.177500 0.771000 1.262400	  	
OW	 6.959900 8.209600 -4.439600	  	
OW	 5.927800 0.786630 -9.561800	  	
OW	 9.391900 1.376100 1.438700	  	
OW	 2.327200 6.802100 6.396000	  	
OW	 1.957700 6.484000 -5.225000	  	
OW	 -0.621820 -1.485800 8.914200  	
OW	 3.712900 8.444300 -2.780400	  	
OW	 3.712400 -4.318500 -9.631200  	
OW	 -4.070900 -6.297600 -2.297400 	
OW	 2.735100 0.649380 7.859400	  	
OW	 -7.143000 3.962900 -2.949500  	
OW	 -1.321400 -3.083100 -0.884100 	
OW	 -5.134600 3.283800 7.551400	  	
OW	 -9.415000 4.930100 0.654020	  	
OW	 5.189300 0.025136 0.856220	  	
OW	 -0.325690 -3.570800 -7.319600 	
OW	 9.355700 2.956800 -2.019500	  	
OW	 7.649100 5.005100 -0.466380	  	
OW	 7.713800 7.398400 -8.974300	  	
OW	 -6.714000 -6.616500 -9.299800 	
OW	 -8.963000 -0.544710 2.864600  	
OW	 -8.344400 1.910100 5.252500	  	
OW	 -5.022700 0.167430 -8.154100  	
OW	 -8.390300 0.468950 -0.693320  	
OW	 -0.230730 -5.542700 0.923650  	
OW	 -3.314400 -0.453590 -5.821200 	
OW	 -8.755700 -4.993300 -8.051800 	
OW	 5.437500 8.687000 4.517200	  	
OW	 -8.924200 8.960500 3.925800	  	
OW	 -0.164870 5.090100 -3.521100  	
OW	 -0.980280 -6.374200 8.206000  	
OW	 0.612930 4.443000 -8.818900	  	
OW	 -2.752900 1.185100 5.592700	  	
OW	 -9.507800 3.492700 2.882900	  	
OW	 -1.976800 -9.721600 1.228900  	
OW	 4.212600 -6.116300 7.101900	  	
OW	 -6.790800 -8.178200 -4.580800 	
OW	 -6.957700 8.268300 2.045100	  	
OW	 -0.097449 -3.837200 7.060000  	
OW	 5.274000 -2.602700 -7.745000  	
OW	 9.139400 8.966900 -6.128300	  	
OW	 4.252200 -8.737500 -1.212100  	
OW	 -2.277500 3.849800 2.481900	  	
OW	 -2.477400 6.216500 -9.408200  	
OW	 -7.245100 -5.526400 -5.565100 	
OW	 4.907100 0.518170 -5.697800	  	
OW	 -1.412400 1.393400 8.308400	  	
OW	 -4.393300 8.874900 -7.197200  	
OW	 -2.741600 1.669300 -8.797800  	
OW	 -7.238300 5.965100 3.751000	  	
OW	 4.678200 6.726800 7.985300	  	
OW	 6.839000 6.534100 2.843900	  	
OW	 7.189700 3.938900 -6.197500	  	
OW	 4.431700 5.785900 -1.368400	  	
OW	 -8.749500 -4.270500 1.220700  	
OW	 -2.055600 2.092600 -6.033200  	
OW	 -3.425900 0.786140 -2.460800  	
OW	 -2.917300 -2.515100 -8.058100 	
OW	 -0.147180 1.153200 0.008407	  	
OW	 6.982900 -4.173000 -6.364500  	
OW	 8.117900 2.054300 -8.277900	  	
OW	 -4.658400 -3.871600 -1.473200 	
OW	 -6.622700 0.907390 3.387000	  	
OW	 2.018100 1.347800 -4.264500	  	
OW	 7.711700 -0.838800 -5.848800  	
OW	 -7.066800 -9.730900 -6.671000 	
OW	 1.527100 -9.656300 9.093500	  	
OW	 -8.003900 8.396300 -2.970800  	
OW	 3.102200 0.037015 -2.190500	  	
OW	 -7.095400 2.873500 -9.693500  	
OW	 -4.519400 3.581100 -8.567500  	
OW	 -3.721400 8.474600 8.532000	  	
OW	 5.373200 9.434800 8.361700	  	
OW	 -4.205100 -6.690600 -4.931700 	
OW	 -5.515200 -3.433700 -5.003700 	
OW	 0.819820 7.972600 -2.961900	  	
OW	 1.626300 1.571900 -8.135000	  	
OW	 -1.948400 -6.517400 -8.600000 	
OW	 6.056900 -3.660400 4.272800	  	
OW	 2.279300 8.074900 0.829200	  	
OW	 1.978700 -6.880000 8.445100	  	
OW	 1.122300 2.794000 8.361400	  	
OW	 1.364300 -8.470600 -2.624000  	
OW	 -5.432000 6.236600 -7.826600  	